<?xml version="1.0" encoding="UTF-8"?>
<routes xmlns:xsi="http://www.w3.org/2001/XMLSchema-instance" xsi:noNamespaceSchemaLocation="http://sumo.dlr.de/xsd/routes_file.xsd">

	
    
<route id="route1" edges="-27282352#1 -27282352#0 517419309 23792302#0 23792302#1 23792302#2 -23792272#1 -23792272#0 584181258 23714295#0 23714295#1 23714295#2 23714307 584181253 405494696#0 405494696#1"/>
<route id="route2" edges="-187816766#1 -187816766#0 27282359#6 27282359#7 27282359#8 542026940 23714287#0 23714287#1 23714286#0 23714286#1 "/>
<route id="route3" edges="23714280#0 23714280#1 23714287#0 23714287#1 23714286#0 23714286#1"/>
<route id="route4" edges="213159004 213159005#0 213159005#1 213159005#2 213159005#3 213159005#4 468478393#1 517419311 517419313 517419312 -405494696#2 -405494696#1 -405494696#0 -584181253"/>
<route id="route5" edges="42138432#0 42138432#1 42138432#2 42138432#3 42138432#4 42138432#5 42138432#6 42138432#7 42138432#8  42138432#9 -23912692#1 -23912692#0 219899010 468478392 468478391 -260136572#4 -260136572#3 -260136572#2 -260136572#1 -260136572#0 -23714284"/>
<route id="route6" edges=" -194463378#2 -194463378#1 -194463378#0 23289033#0 23289033#1 517419314 517419316 232805394 232805393 232805395#0 232805395#1 517419313 517419312 -405494696#2 -405494696#1 -405494696#0"/>
<route id="route7" edges="261959646#0 261959646#1 261959646#2 129423851#2 129423851#3 517419306 517419309 23792302#0 189253789#0 189253789#1 -23714318#2 -23714318#1"/>


    <vehicle id="v0" depart="0" route="route1" departPos="0"/>
	
	<vehicle id="v1" depart="5" route="route1" departPos="0"/>	

	
	<vehicle id="v2" depart="10" route="route1" departPos="0"/>
	

    
	<vehicle id="v3" depart="20" route="route1" departPos="0"/>


		
    
	<vehicle id="v4" depart="25" route="route2" departPos="0"/>
	
	<vehicle id="v5" depart="30" route="route2" departPos="0"/>	

	
	<vehicle id="v6" depart="35" route="route2" departPos="0"/>
	

    
	<vehicle id="v7" depart="40" route="route2" departPos="0"/>
	

	
	<vehicle id="v20" depart="45" route="route3" departPos="0"/>
	
	<vehicle id="v21" depart="50" route="route3" departPos="0"/>	

	
	<vehicle id="v22" depart="55" route="route3" departPos="0"/>
	

    
	<vehicle id="v23" depart="60" route="route3" departPos="0"/>
	
	
	<vehicle id="v8" depart="60" route="route4" departPos="0"/>
	
	<vehicle id="v9" depart="61" route="route4" departPos="0"/>	

	
	<vehicle id="v10" depart="62" route="route4" departPos="0"/>
	

    
	<vehicle id="v11" depart="63" route="route3" departPos="0"/>

	<vehicle id="v12" depart="65" route="route5" departPos="0"/>
	
	<vehicle id="v13" depart="65" route="route5" departPos="0"/>	

	
	<vehicle id="v14" depart="66" route="route5" departPos="0"/>
	

    
	<vehicle id="v15" depart="67" route="route5" departPos="0"/>
	
	<vehicle id="v16" depart="68" route="route6" departPos="0"/>
	
	<vehicle id="v17" depart="69" route="route6" departPos="0"/>	

	
	<vehicle id="v18" depart="70" route="route6" departPos="0"/>
	

    
	<vehicle id="v19" depart="71" route="route6" departPos="0"/>

	<vehicle id="v25" depart="72" route="route7" departPos="0"/>
	
	<vehicle id="v26" depart="73" route="route7" departPos="0"/>	

	
	<vehicle id="v27" depart="74" route="route7" departPos="0"/>
	

    
	<vehicle id="v28" depart="75" route="route7" departPos="0"/>
</routes>
