<?xml version="1.0" encoding="UTF-8"?>
<routes xmlns:xsi="http://www.w3.org/2001/XMLSchema-instance" xsi:noNamespaceSchemaLocation="http://sumo.dlr.de/xsd/routes_file.xsd">
	
	<vType id="DEFAULT_VEHTYPE" sigma="0">
	    <param key="parking.distance.weight" value="1"/>
    </vType>
	<vType accel="1.0" decel="5.0" id="Bus" length="12.0" maxSpeed="1.0" sigma="0.0" />
	
    <route id="route1" edges="a b -d">
	    <stop index="5" parkingArea="ParkAreaB" duration="60" parking="true"/>
    </route>

    <vehicle id="v0" depart="0" route="route1" departPos="190"/>
	
		
	<route id="route2" edges="a b c">
		<stop index="0" parkingArea="ParkAreaB" duration="80" parking="true" type="Bus"/>
    </route>

    <vehicle id="v1" depart="5" route="route2" departPos="180"/>
	
	<route id="route3" edges="a b c">
		<stop index="1" parkingArea="ParkAreaC" duration="90" parking="true"/>
    </route>

    <vehicle id="v2" depart="10" route="route3" departPos="170"/>
	
		<route id="route4" edges="a b -d">
		<stop index="3" parkingArea="ParkAreaD" duration="30" parking="true"/>
    </route>

    <vehicle id="v3" depart="20" route="route4" departPos="150"/>
	
</routes>
