<?xml version="1.0" encoding="UTF-8"?>

<!-- generated on 01/29/19 14:18:45 by Eclipse SUMO netconvert Version 1.0.1
<configuration xmlns:xsi="http://www.w3.org/2001/XMLSchema-instance" xsi:noNamespaceSchemaLocation="http://sumo.dlr.de/xsd/netconvertConfiguration.xsd">

    <input>
        <osm-files value="C:\Users\SOFIENE\Downloads\SUMO\parking\map.osm"/>
    </input>

    <output>
        <output-file value="C:\Users\SOFIENE\Downloads\SUMO\parking\OSMtest.net.xml"/>
    </output>

    <projection>
        <proj.utm value="true"/>
    </projection>

</configuration>
-->

<net version="1.0" junctionCornerDetail="5" limitTurnSpeed="5.50" xmlns:xsi="http://www.w3.org/2001/XMLSchema-instance" xsi:noNamespaceSchemaLocation="http://sumo.dlr.de/xsd/net_file.xsd">

    <location netOffset="-469002.59,-5409252.63" convBoundary="0.00,0.00,1710.53,1486.33" origBoundary="2.273509,48.781788,2.600852,48.848861" projParameter="+proj=utm +zone=31 +ellps=WGS84 +datum=WGS84 +units=m +no_defs"/>

    <type id="highway.bridleway" priority="1" numLanes="1" speed="2.78" allow="pedestrian" oneway="1" width="2.00"/>
    <type id="highway.bus_guideway" priority="1" numLanes="1" speed="27.78" allow="bus" oneway="1"/>
    <type id="highway.cycleway" priority="1" numLanes="1" speed="8.33" allow="bicycle" oneway="0" width="1.00"/>
    <type id="highway.footway" priority="1" numLanes="1" speed="2.78" allow="pedestrian" oneway="1" width="2.00"/>
    <type id="highway.ford" priority="1" numLanes="1" speed="2.78" allow="army" oneway="0"/>
    <type id="highway.living_street" priority="3" numLanes="1" speed="2.78" disallow="tram rail_urban rail rail_electric ship" oneway="0"/>
    <type id="highway.motorway" priority="13" numLanes="2" speed="44.44" allow="private emergency authority army vip passenger hov taxi bus coach delivery truck trailer motorcycle evehicle custom1 custom2" oneway="1"/>
    <type id="highway.motorway_link" priority="12" numLanes="1" speed="22.22" allow="private emergency authority army vip passenger hov taxi bus coach delivery truck trailer motorcycle evehicle custom1 custom2" oneway="1"/>
    <type id="highway.path" priority="1" numLanes="1" speed="2.78" allow="bicycle pedestrian" oneway="1" width="2.00"/>
    <type id="highway.pedestrian" priority="1" numLanes="1" speed="2.78" allow="pedestrian" oneway="1" width="2.00"/>
    <type id="highway.primary" priority="9" numLanes="2" speed="27.78" disallow="tram rail_urban rail rail_electric ship" oneway="0"/>
    <type id="highway.primary_link" priority="8" numLanes="1" speed="22.22" disallow="tram rail_urban rail rail_electric ship" oneway="0"/>
    <type id="highway.raceway" priority="14" numLanes="2" speed="83.33" allow="vip" oneway="0"/>
    <type id="highway.residential" priority="4" numLanes="1" speed="13.89" disallow="tram rail_urban rail rail_electric ship" oneway="0"/>
    <type id="highway.secondary" priority="7" numLanes="2" speed="27.78" disallow="tram rail_urban rail rail_electric ship" oneway="0"/>
    <type id="highway.secondary_link" priority="6" numLanes="1" speed="22.22" disallow="tram rail_urban rail rail_electric ship" oneway="0"/>
    <type id="highway.service" priority="2" numLanes="1" speed="5.56" allow="delivery bicycle pedestrian" oneway="0"/>
    <type id="highway.stairs" priority="1" numLanes="1" speed="1.39" allow="pedestrian" oneway="1" width="2.00"/>
    <type id="highway.step" priority="1" numLanes="1" speed="1.39" allow="pedestrian" oneway="1" width="2.00"/>
    <type id="highway.steps" priority="1" numLanes="1" speed="1.39" allow="pedestrian" oneway="1" width="2.00"/>
    <type id="highway.tertiary" priority="6" numLanes="1" speed="22.22" disallow="tram rail_urban rail rail_electric ship" oneway="0"/>
    <type id="highway.tertiary_link" priority="5" numLanes="1" speed="22.22" disallow="tram rail_urban rail rail_electric ship" oneway="0"/>
    <type id="highway.track" priority="1" numLanes="1" speed="5.56" disallow="tram rail_urban rail rail_electric ship" oneway="0"/>
    <type id="highway.trunk" priority="11" numLanes="2" speed="27.78" disallow="tram rail_urban rail rail_electric bicycle pedestrian ship" oneway="0"/>
    <type id="highway.trunk_link" priority="10" numLanes="1" speed="22.22" disallow="tram rail_urban rail rail_electric bicycle pedestrian ship" oneway="0"/>
    <type id="highway.unclassified" priority="5" numLanes="1" speed="13.89" disallow="tram rail_urban rail rail_electric ship" oneway="0"/>
    <type id="highway.unsurfaced" priority="1" numLanes="1" speed="8.33" disallow="tram rail_urban rail rail_electric ship" oneway="0"/>
    <type id="railway.light_rail" priority="15" numLanes="1" speed="27.78" allow="rail_urban" oneway="1"/>
    <type id="railway.preserved" priority="15" numLanes="1" speed="27.78" allow="rail" oneway="1"/>
    <type id="railway.rail" priority="15" numLanes="1" speed="83.33" allow="rail rail_electric" oneway="1"/>
    <type id="railway.subway" priority="15" numLanes="1" speed="27.78" allow="rail_urban" oneway="1"/>
    <type id="railway.tram" priority="15" numLanes="1" speed="13.89" allow="tram" oneway="1"/>

    <edge id=":1016150815_0" function="internal">
        <lane id=":1016150815_0_0" index="0" allow="delivery bicycle pedestrian" speed="4.55" length="7.09" shape="259.82,882.78 257.47,882.07 256.68,881.32 257.43,880.52 259.73,879.67"/>
    </edge>
    <edge id=":1016150818_0" function="internal">
        <lane id=":1016150818_0_0" index="0" allow="delivery bicycle pedestrian" speed="5.56" length="5.20" shape="404.55,901.83 403.07,901.44 402.09,900.95 401.11,900.53 399.62,900.37"/>
    </edge>
    <edge id=":1016150818_1" function="internal">
        <lane id=":1016150818_1_0" index="0" allow="delivery bicycle pedestrian" speed="3.65" length="4.67" shape="404.55,901.83 403.48,900.87 403.20,900.02 403.71,899.29 405.01,898.67"/>
    </edge>
    <edge id=":1016150818_2" function="internal">
        <lane id=":1016150818_2_0" index="0" allow="delivery bicycle pedestrian" speed="5.56" length="4.55" shape="401.13,896.55 402.10,897.49 402.84,898.07 403.70,898.42 405.01,898.67"/>
    </edge>
    <edge id=":1016150818_3" function="internal">
        <lane id=":1016150818_3_0" index="0" allow="delivery bicycle pedestrian" speed="4.67" length="6.62" shape="401.13,896.55 402.47,898.18 402.66,899.37 401.71,900.09 399.62,900.37"/>
    </edge>
    <edge id=":1016150837_0" function="internal">
        <lane id=":1016150837_0_0" index="0" allow="delivery bicycle pedestrian" speed="5.56" length="5.30" shape="316.68,881.75 321.94,882.39"/>
    </edge>
    <edge id=":1016160305_0" function="internal">
        <lane id=":1016160305_0_0" index="0" allow="delivery bicycle pedestrian" speed="3.68" length="2.15" shape="420.71,800.28 420.17,800.36 419.88,800.68 419.75,801.19 419.69,801.83"/>
    </edge>
    <edge id=":1016160305_1" function="internal">
        <lane id=":1016160305_1_0" index="0" allow="delivery bicycle pedestrian" speed="9.73" length="7.21" shape="420.71,800.28 413.52,799.78"/>
    </edge>
    <edge id=":1016160305_2" function="internal">
        <lane id=":1016160305_2_0" index="0" disallow="tram rail_urban rail rail_electric ship" speed="3.65" length="4.67" shape="420.71,800.28 419.56,799.41 419.21,798.58 419.66,797.81 420.90,797.08"/>
    </edge>
    <edge id=":1016160305_3" function="internal">
        <lane id=":1016160305_3_0" index="0" disallow="tram rail_urban rail rail_electric ship" speed="9.73" length="7.17" shape="413.75,796.59 420.90,797.08"/>
    </edge>
    <edge id=":1016160305_4" function="internal">
        <lane id=":1016160305_4_0" index="0" allow="delivery bicycle pedestrian" speed="5.56" length="8.98" shape="413.75,796.59 416.48,797.09 418.38,798.13 419.45,799.71 419.69,801.83"/>
    </edge>
    <edge id=":1016160305_5" function="internal">
        <lane id=":1016160305_5_0" index="0" allow="delivery bicycle pedestrian" speed="3.65" length="4.67" shape="413.75,796.59 414.89,797.48 415.23,798.30 414.77,799.07 413.52,799.78"/>
    </edge>
    <edge id=":1016160305_6" function="internal">
        <lane id=":1016160305_6_0" index="0" allow="delivery bicycle pedestrian" speed="4.57" length="3.93" shape="416.49,801.70 416.35,800.94 415.81,800.37 414.87,799.99 413.52,799.78"/>
    </edge>
    <edge id=":1016160305_7" function="internal">
        <lane id=":1016160305_7_0" index="0" disallow="tram rail_urban rail rail_electric ship" speed="5.93" length="7.24" shape="416.49,801.70 416.90,799.59 417.77,798.11 419.11,797.28 420.90,797.08"/>
    </edge>
    <edge id=":1016160305_8" function="internal">
        <lane id=":1016160305_8_0" index="0" allow="delivery bicycle pedestrian" speed="3.65" length="4.68" shape="416.49,801.70 417.34,800.53 418.16,800.16 418.94,800.60 419.69,801.83"/>
    </edge>
    <edge id=":1016160322_0" function="internal">
        <lane id=":1016160322_0_0" index="0" allow="delivery bicycle pedestrian" speed="5.56" length="0.36" shape="419.37,805.92 419.33,806.28"/>
    </edge>
    <edge id=":1016160322_1" function="internal">
        <lane id=":1016160322_1_0" index="0" allow="delivery bicycle pedestrian" speed="3.65" length="2.34" shape="419.37,805.92 418.48,807.05 417.65,807.39"/>
    </edge>
    <edge id=":1016160322_4" function="internal">
        <lane id=":1016160322_4_0" index="0" speed="3.65" length="2.34" shape="417.65,807.39 416.88,806.93 416.18,805.67"/>
    </edge>
    <edge id=":1016160322_2" function="internal">
        <lane id=":1016160322_2_0" index="0" allow="delivery bicycle pedestrian" speed="5.56" length="0.12" shape="416.17,805.79 416.18,805.67"/>
    </edge>
    <edge id=":1016160322_3" function="internal">
        <lane id=":1016160322_3_0" index="0" allow="delivery bicycle pedestrian" speed="3.65" length="2.34" shape="416.17,805.79 417.14,804.72 417.99,804.45"/>
    </edge>
    <edge id=":1016160322_5" function="internal">
        <lane id=":1016160322_5_0" index="0" speed="3.65" length="2.34" shape="417.99,804.45 418.72,804.97 419.33,806.28"/>
    </edge>
    <edge id=":1310597169_0" function="internal">
        <lane id=":1310597169_0_0" index="0" disallow="tram rail_urban rail rail_electric ship" speed="13.89" length="6.65" shape="895.58,404.64 890.71,409.17"/>
    </edge>
    <edge id=":1310597169_1" function="internal">
        <lane id=":1310597169_1_0" index="0" disallow="tram rail_urban rail rail_electric ship" speed="3.65" length="2.34" shape="895.58,404.64 894.16,404.89 893.31,404.59"/>
    </edge>
    <edge id=":1310597169_4" function="internal">
        <lane id=":1310597169_4_0" index="0" speed="3.65" length="2.34" shape="893.31,404.59 893.05,403.74 893.36,402.33"/>
    </edge>
    <edge id=":1310597169_2" function="internal">
        <lane id=":1310597169_2_0" index="0" disallow="tram rail_urban rail rail_electric ship" speed="13.89" length="6.56" shape="888.56,406.80 893.36,402.33"/>
    </edge>
    <edge id=":1310597169_3" function="internal">
        <lane id=":1310597169_3_0" index="0" disallow="tram rail_urban rail rail_electric ship" speed="3.65" length="2.34" shape="888.56,406.80 889.99,406.59 890.82,406.91"/>
    </edge>
    <edge id=":1310597169_5" function="internal">
        <lane id=":1310597169_5_0" index="0" speed="3.65" length="2.34" shape="890.82,406.91 891.06,407.77 890.71,409.17"/>
    </edge>
    <edge id=":1310597202_0" function="internal">
        <lane id=":1310597202_0_0" index="0" allow="delivery bicycle pedestrian" speed="5.56" length="3.79" shape="419.67,802.03 419.38,805.81"/>
    </edge>
    <edge id=":1310597202_1" function="internal">
        <lane id=":1310597202_1_0" index="0" allow="delivery bicycle pedestrian" speed="3.65" length="2.34" shape="419.67,802.03 418.82,803.20 418.01,803.56"/>
    </edge>
    <edge id=":1310597202_4" function="internal">
        <lane id=":1310597202_4_0" index="0" speed="3.65" length="2.34" shape="418.01,803.56 417.22,803.13 416.47,801.89"/>
    </edge>
    <edge id=":1310597202_2" function="internal">
        <lane id=":1310597202_2_0" index="0" allow="delivery bicycle pedestrian" speed="5.56" length="3.67" shape="416.19,805.55 416.47,801.89"/>
    </edge>
    <edge id=":1310597202_3" function="internal">
        <lane id=":1310597202_3_0" index="0" allow="delivery bicycle pedestrian" speed="3.65" length="2.34" shape="416.19,805.55 417.08,804.42 417.91,804.09"/>
    </edge>
    <edge id=":1310597202_5" function="internal">
        <lane id=":1310597202_5_0" index="0" speed="3.65" length="2.34" shape="417.91,804.09 418.68,804.55 419.38,805.81"/>
    </edge>
    <edge id=":1327179583_0" function="internal">
        <lane id=":1327179583_0_0" index="0" allow="rail rail_electric" speed="83.33" length="0.30" shape="452.19,860.09 452.48,860.13"/>
    </edge>
    <edge id=":1327179661_0" function="internal">
        <lane id=":1327179661_0_0" index="0" allow="rail rail_electric" speed="83.33" length="0.25" shape="630.63,875.63 630.89,875.63"/>
    </edge>
    <edge id=":1327179665_0" function="internal">
        <lane id=":1327179665_0_0" index="0" allow="rail rail_electric" speed="83.33" length="0.27" shape="631.11,872.24 630.84,872.23"/>
    </edge>
    <edge id=":1428008498_0" function="internal">
        <lane id=":1428008498_0_0" index="0" disallow="tram rail_urban rail rail_electric ship" speed="9.43" length="9.54" shape="341.93,291.24 340.22,292.17 338.69,293.70 337.35,295.80 336.18,298.50"/>
    </edge>
    <edge id=":1428008498_1" function="internal">
        <lane id=":1428008498_1_0" index="0" disallow="tram rail_urban rail rail_electric ship" speed="10.37" length="11.63" shape="340.85,288.22 338.50,289.43 336.48,291.24 334.79,293.66 333.43,296.70"/>
    </edge>
    <edge id=":1428008498_2" function="internal">
        <lane id=":1428008498_2_0" index="0" disallow="tram rail_urban rail rail_electric ship" speed="13.89" length="11.03" shape="340.85,288.22 337.88,289.81 335.96,291.45 334.00,292.61 330.87,292.78"/>
        <lane id=":1428008498_2_1" index="1" disallow="tram rail_urban rail rail_electric ship" speed="13.89" length="11.03" shape="340.85,288.22 337.85,289.27 335.70,289.78 333.51,289.83 330.35,289.49"/>
    </edge>
    <edge id=":1428008509_0" function="internal">
        <lane id=":1428008509_0_0" index="0" disallow="tram rail_urban rail rail_electric ship" speed="8.23" length="9.93" shape="359.31,263.37 360.17,265.57 361.62,267.34 363.69,268.68 366.36,269.58"/>
    </edge>
    <edge id=":1428008509_1" function="internal">
        <lane id=":1428008509_1_0" index="0" disallow="tram rail_urban rail rail_electric ship" speed="13.89" length="10.54" shape="359.31,263.37 359.87,266.48 359.84,268.67 359.34,270.86 358.47,273.95"/>
        <lane id=":1428008509_1_1" index="1" disallow="tram rail_urban rail rail_electric ship" speed="12.74" length="10.54" shape="356.19,264.08 356.76,267.03 356.77,269.14 356.22,271.19 355.08,274.00"/>
    </edge>
    <edge id=":1428008525_0" function="internal">
        <lane id=":1428008525_0_0" index="0" disallow="tram rail_urban rail rail_electric ship" speed="7.90" length="7.40" shape="323.95,295.67 323.48,293.56 322.71,291.84 321.64,290.51 320.29,289.56"/>
    </edge>
    <edge id=":1428008525_1" function="internal">
        <lane id=":1428008525_1_0" index="0" disallow="tram rail_urban rail rail_electric ship" speed="13.89" length="7.94" shape="327.84,292.33 325.52,291.76 323.95,291.28 322.43,290.63 320.29,289.56"/>
        <lane id=":1428008525_1_1" index="1" disallow="tram rail_urban rail rail_electric ship" speed="13.89" length="7.94" shape="328.95,289.31 326.67,288.98 325.11,288.61 323.67,287.93 321.72,286.70"/>
    </edge>
    <edge id=":1428008558_0" function="internal">
        <lane id=":1428008558_0_0" index="0" disallow="tram rail_urban rail rail_electric ship" speed="13.89" length="8.17" shape="314.67,390.99 314.86,388.61 314.59,386.95 314.30,385.28 314.40,382.88"/>
    </edge>
    <edge id=":1428011894_0" function="internal">
        <lane id=":1428011894_0_0" index="0" disallow="tram rail_urban rail rail_electric ship" speed="22.22" length="5.57" shape="524.53,297.78 518.96,297.82"/>
    </edge>
    <edge id=":1428011899_0" function="internal">
        <lane id=":1428011899_0_0" index="0" disallow="tram rail_urban rail rail_electric ship" speed="4.45" length="6.52" shape="294.67,263.84 292.83,262.63 292.34,261.72 293.20,261.12 295.42,260.83"/>
    </edge>
    <edge id=":1428011901_0" function="internal">
        <lane id=":1428011901_0_0" index="0" disallow="tram rail_urban rail rail_electric ship" speed="22.22" length="5.60" shape="518.66,285.44 520.32,285.44 521.45,285.39 522.58,285.25 524.23,285.02"/>
    </edge>
    <edge id=":1428011907_0" function="internal">
        <lane id=":1428011907_0_0" index="0" disallow="tram rail_urban rail rail_electric ship" speed="18.05" length="12.24" shape="309.83,278.91 307.67,275.81 305.89,273.73 304.09,271.92 301.89,269.63"/>
    </edge>
    <edge id=":1428011907_1" function="internal">
        <lane id=":1428011907_1_0" index="0" disallow="tram rail_urban rail rail_electric ship" speed="13.89" length="13.09" shape="309.83,278.91 307.91,275.62 307.02,273.11 306.77,270.42 306.76,266.56"/>
        <lane id=":1428011907_1_1" index="1" disallow="tram rail_urban rail rail_electric ship" speed="12.66" length="13.09" shape="312.53,277.18 310.54,273.87 309.59,271.33 309.46,268.61 309.95,264.78"/>
    </edge>
    <edge id=":1428011908_0" function="internal">
        <lane id=":1428011908_0_0" index="0" allow="bicycle" speed="4.50" length="3.61" width="1.00" shape="298.65,267.88 297.90,267.40 297.13,267.29 296.31,267.57 295.45,268.22"/>
    </edge>
    <edge id=":1428011908_1" function="internal">
        <lane id=":1428011908_1_0" index="0" disallow="tram rail_urban rail rail_electric ship" speed="22.22" length="5.46" shape="299.40,267.08 298.20,265.99 297.32,265.32 296.36,264.75 294.93,263.98"/>
    </edge>
    <edge id=":1428011908_2" function="internal">
        <lane id=":1428011908_2_0" index="0" disallow="tram rail_urban rail rail_electric ship" speed="3.50" length="3.21" shape="294.76,267.50 295.33,266.77 295.46,266.10 295.15,265.49 294.41,264.94"/>
    </edge>
    <edge id=":1428011908_3" function="internal">
        <lane id=":1428011908_3_0" index="0" allow="bicycle" speed="2.04" length="1.46" width="1.00" shape="294.76,267.50 295.20,267.42 295.46,267.51 295.55,267.78 295.45,268.22"/>
    </edge>
    <edge id=":1580773365_0" function="internal">
        <lane id=":1580773365_0_0" index="0" allow="bicycle" speed="2.04" length="1.46" width="1.00" shape="390.18,1483.40 390.57,1483.61 390.72,1483.85 390.61,1484.11 390.26,1484.39"/>
    </edge>
    <edge id=":1580773384_0" function="internal">
        <lane id=":1580773384_0_0" index="0" allow="bicycle" speed="4.67" length="4.84" width="1.00" shape="386.32,1086.40 387.62,1086.66 388.53,1087.28 389.04,1088.25 389.16,1089.57"/>
    </edge>
    <edge id=":1580773384_1" function="internal">
        <lane id=":1580773384_1_0" index="0" allow="bicycle" speed="2.04" length="1.46" width="1.00" shape="386.32,1086.40 386.68,1086.67 386.80,1086.93 386.66,1087.17 386.27,1087.40"/>
    </edge>
    <edge id=":1580773384_2" function="internal">
        <lane id=":1580773384_2_0" index="0" allow="bicycle" speed="3.88" length="3.24" width="1.00" shape="388.17,1089.52 388.08,1088.64 387.74,1087.99 387.13,1087.58 386.27,1087.40"/>
    </edge>
    <edge id=":1580773384_3" function="internal">
        <lane id=":1580773384_3_0" index="0" allow="bicycle" speed="2.04" length="1.46" width="1.00" shape="388.17,1089.52 388.43,1089.16 388.69,1089.04 388.93,1089.18 389.16,1089.57"/>
    </edge>
    <edge id=":1580773393_0" function="internal">
        <lane id=":1580773393_0_0" index="0" allow="bicycle" speed="8.33" length="5.06" width="1.00" shape="312.74,1358.05 311.51,1358.93 310.65,1359.59 309.72,1360.00 308.28,1360.14"/>
    </edge>
    <edge id=":1580773393_1" function="internal">
        <lane id=":1580773393_1_0" index="0" allow="bicycle" speed="2.04" length="0.73" width="1.00" shape="312.74,1358.05 312.29,1358.04 312.05,1357.89"/>
    </edge>
    <edge id=":1580773393_4" function="internal">
        <lane id=":1580773393_4_0" index="0" speed="2.04" length="0.73" width="1.00" shape="312.05,1357.89 312.02,1357.61 312.21,1357.20"/>
    </edge>
    <edge id=":1580773393_2" function="internal">
        <lane id=":1580773393_2_0" index="0" allow="bicycle" speed="8.33" length="4.84" width="1.00" shape="307.91,1359.14 309.30,1359.02 310.19,1358.64 311.03,1358.03 312.21,1357.20"/>
    </edge>
    <edge id=":1580773393_3" function="internal">
        <lane id=":1580773393_3_0" index="0" allow="bicycle" speed="2.09" length="0.78" width="1.00" shape="307.91,1359.14 308.38,1359.25 308.60,1359.45"/>
    </edge>
    <edge id=":1580773393_5" function="internal">
        <lane id=":1580773393_5_0" index="0" speed="2.09" length="0.78" width="1.00" shape="308.60,1359.45 308.56,1359.75 308.28,1360.14"/>
    </edge>
    <edge id=":1667344275_0" function="internal">
        <lane id=":1667344275_0_0" index="0" disallow="tram rail_urban rail rail_electric ship" speed="3.65" length="4.67" shape="812.36,1366.91 813.51,1367.78 813.86,1368.60 813.42,1369.38 812.17,1370.11"/>
    </edge>
    <edge id=":1667352448_0" function="internal">
        <lane id=":1667352448_0_0" index="0" allow="delivery bicycle pedestrian" speed="3.65" length="4.67" shape="630.52,1250.25 631.69,1251.09 632.06,1251.90 631.64,1252.69 630.41,1253.44"/>
    </edge>
    <edge id=":1667358969_0" function="internal">
        <lane id=":1667358969_0_0" index="0" allow="delivery bicycle pedestrian" speed="3.65" length="4.67" shape="641.04,1208.52 642.19,1209.38 642.56,1210.20 642.12,1210.98 640.88,1211.72"/>
    </edge>
    <edge id=":1667360012_0" function="internal">
        <lane id=":1667360012_0_0" index="0" disallow="tram rail_urban rail rail_electric ship" speed="3.65" length="4.67" shape="849.36,1214.28 848.40,1215.35 847.55,1215.64 846.81,1215.13 846.19,1213.82"/>
    </edge>
    <edge id=":1667360870_0" function="internal">
        <lane id=":1667360870_0_0" index="0" allow="delivery bicycle pedestrian" speed="9.73" length="0.77" shape="673.15,1148.04 672.92,1148.03 672.76,1148.03 672.61,1148.07 672.40,1148.15"/>
    </edge>
    <edge id=":1667360870_1" function="internal">
        <lane id=":1667360870_1_0" index="0" disallow="tram rail_urban rail rail_electric ship" speed="3.65" length="1.96" shape="673.15,1148.04 672.03,1147.14 671.84,1146.66"/>
    </edge>
    <edge id=":1667360870_4" function="internal">
        <lane id=":1667360870_4_0" index="0" speed="3.65" length="2.71" shape="671.84,1146.66 671.70,1146.30 672.17,1145.54 673.44,1144.86"/>
    </edge>
    <edge id=":1667360870_2" function="internal">
        <lane id=":1667360870_2_0" index="0" disallow="tram rail_urban rail rail_electric ship" speed="7.97" length="2.30" shape="671.20,1145.19 671.84,1144.94 672.29,1144.82 672.77,1144.81 673.44,1144.86"/>
    </edge>
    <edge id=":1667360870_3" function="internal">
        <lane id=":1667360870_3_0" index="0" allow="delivery bicycle pedestrian" speed="3.65" length="2.71" shape="671.20,1145.19 672.62,1145.48 673.29,1146.07 673.26,1146.45"/>
    </edge>
    <edge id=":1667360870_5" function="internal">
        <lane id=":1667360870_5_0" index="0" speed="3.65" length="1.96" shape="673.26,1146.45 673.21,1146.96 672.40,1148.15"/>
    </edge>
    <edge id=":1668513657_0" function="internal">
        <lane id=":1668513657_0_0" index="0" disallow="tram rail_urban rail rail_electric ship" speed="5.07" length="4.97" shape="604.84,1161.86 603.50,1162.02 602.51,1162.58 601.90,1163.53 601.65,1164.86"/>
    </edge>
    <edge id=":1668513657_1" function="internal">
        <lane id=":1668513657_1_0" index="0" disallow="tram rail_urban rail rail_electric ship" speed="5.83" length="7.20" shape="604.84,1161.86 602.11,1161.66 600.17,1161.18 599.03,1160.42 598.69,1159.38"/>
    </edge>
    <edge id=":1668513657_2" function="internal">
        <lane id=":1668513657_2_0" index="0" allow="delivery bicycle pedestrian" speed="3.65" length="4.67" shape="604.84,1161.86 603.65,1161.04 603.27,1160.23 603.68,1159.44 604.89,1158.66"/>
    </edge>
    <edge id=":1668513657_3" function="internal">
        <lane id=":1668513657_3_0" index="0" allow="delivery bicycle pedestrian" speed="4.16" length="3.13" shape="601.89,1159.53 604.89,1158.66"/>
    </edge>
    <edge id=":1668513657_4" function="internal">
        <lane id=":1668513657_4_0" index="0" disallow="tram rail_urban rail rail_electric ship" speed="13.89" length="5.34" shape="601.89,1159.53 601.65,1164.86"/>
    </edge>
    <edge id=":1668513657_5" function="internal">
        <lane id=":1668513657_5_0" index="0" disallow="tram rail_urban rail rail_electric ship" speed="3.65" length="2.34" shape="601.89,1159.53 601.03,1160.69 600.21,1161.05"/>
    </edge>
    <edge id=":1668513657_9" function="internal">
        <lane id=":1668513657_9_0" index="0" speed="3.65" length="2.34" shape="600.21,1161.05 599.43,1160.62 598.69,1159.38"/>
    </edge>
    <edge id=":1668513657_6" function="internal">
        <lane id=":1668513657_6_0" index="0" disallow="tram rail_urban rail rail_electric ship" speed="13.89" length="5.34" shape="598.45,1164.72 598.69,1159.38"/>
    </edge>
    <edge id=":1668513657_7" function="internal">
        <lane id=":1668513657_7_0" index="0" allow="delivery bicycle pedestrian" speed="6.89" length="5.01" shape="598.45,1164.72 598.96,1162.03 600.20,1160.12"/>
    </edge>
    <edge id=":1668513657_8" function="internal">
        <lane id=":1668513657_8_0" index="0" disallow="tram rail_urban rail rail_electric ship" speed="3.65" length="2.34" shape="598.45,1164.72 599.31,1163.55 600.12,1163.19"/>
    </edge>
    <edge id=":1668513657_10" function="internal">
        <lane id=":1668513657_10_0" index="0" speed="6.89" length="5.01" shape="600.20,1160.12 602.18,1159.00 604.89,1158.66"/>
    </edge>
    <edge id=":1668513657_11" function="internal">
        <lane id=":1668513657_11_0" index="0" speed="3.65" length="2.34" shape="600.12,1163.19 600.90,1163.62 601.65,1164.86"/>
    </edge>
    <edge id=":1668513665_0" function="internal">
        <lane id=":1668513665_0_0" index="0" disallow="tram rail_urban rail rail_electric ship" speed="4.98" length="5.08" shape="602.88,1209.65 601.48,1209.70 600.45,1210.19 599.81,1211.13 599.55,1212.51"/>
    </edge>
    <edge id=":1668513665_1" function="internal">
        <lane id=":1668513665_1_0" index="0" disallow="tram rail_urban rail rail_electric ship" speed="7.03" length="10.19" shape="602.88,1209.65 600.11,1208.98 598.17,1207.64 597.05,1205.63 596.77,1202.97"/>
    </edge>
    <edge id=":1668513665_2" function="internal">
        <lane id=":1668513665_2_0" index="0" allow="delivery bicycle pedestrian" speed="3.65" length="4.67" shape="602.88,1209.65 601.77,1208.73 601.46,1207.89 601.94,1207.14 603.22,1206.47"/>
    </edge>
    <edge id=":1668513665_3" function="internal">
        <lane id=":1668513665_3_0" index="0" allow="delivery bicycle pedestrian" speed="5.26" length="5.26" shape="599.97,1203.11 600.12,1204.44 600.72,1205.45 601.75,1206.12 603.22,1206.47"/>
    </edge>
    <edge id=":1668513665_4" function="internal">
        <lane id=":1668513665_4_0" index="0" disallow="tram rail_urban rail rail_electric ship" speed="13.89" length="9.41" shape="599.97,1203.11 599.55,1212.51"/>
    </edge>
    <edge id=":1668513665_5" function="internal">
        <lane id=":1668513665_5_0" index="0" disallow="tram rail_urban rail rail_electric ship" speed="3.65" length="2.34" shape="599.97,1203.11 599.12,1204.27 598.30,1204.63"/>
    </edge>
    <edge id=":1668513665_9" function="internal">
        <lane id=":1668513665_9_0" index="0" speed="3.65" length="2.34" shape="598.30,1204.63 597.52,1204.20 596.77,1202.97"/>
    </edge>
    <edge id=":1668513665_6" function="internal">
        <lane id=":1668513665_6_0" index="0" disallow="tram rail_urban rail rail_electric ship" speed="13.89" length="9.41" shape="596.35,1212.37 596.77,1202.97"/>
    </edge>
    <edge id=":1668513665_7" function="internal">
        <lane id=":1668513665_7_0" index="0" allow="delivery bicycle pedestrian" speed="6.81" length="5.24" shape="596.35,1212.37 596.89,1209.52 598.22,1207.59"/>
    </edge>
    <edge id=":1668513665_8" function="internal">
        <lane id=":1668513665_8_0" index="0" disallow="tram rail_urban rail rail_electric ship" speed="3.65" length="2.34" shape="596.35,1212.37 597.21,1211.20 598.02,1210.84"/>
    </edge>
    <edge id=":1668513665_10" function="internal">
        <lane id=":1668513665_10_0" index="0" speed="6.81" length="5.24" shape="598.22,1207.59 600.33,1206.57 603.22,1206.47"/>
    </edge>
    <edge id=":1668513665_11" function="internal">
        <lane id=":1668513665_11_0" index="0" speed="3.65" length="2.34" shape="598.02,1210.84 598.81,1211.27 599.55,1212.51"/>
    </edge>
    <edge id=":1668513741_0" function="internal">
        <lane id=":1668513741_0_0" index="0" disallow="tram rail_urban rail rail_electric ship" speed="5.11" length="5.08" shape="601.00,1252.46 599.59,1252.62 598.56,1253.17 597.92,1254.12 597.66,1255.45"/>
    </edge>
    <edge id=":1668513741_1" function="internal">
        <lane id=":1668513741_1_0" index="0" disallow="tram rail_urban rail rail_electric ship" speed="6.84" length="10.27" shape="601.00,1252.46 598.21,1252.00 596.27,1250.76 595.15,1248.73 594.88,1245.92"/>
    </edge>
    <edge id=":1668513741_2" function="internal">