<additional>
<tazs>
<taz id="1" edges="a">
</taz>
<taz id="2" edges="b">
</taz>
<taz id="3" edges="c">
</taz>
<taz id="4" edges="d">
</taz>
<taz id="5" edges="e">
</taz>
</tazs>
</additional>